<?xml version="1.0" encoding="UTF-8"?>

<!-- generated on 2026-03-09T21:16:42.695488+08:00 by Eclipse SUMO netconvert 1.25.0
<netconvertConfiguration xmlns:xsi="http://www.w3.org/2001/XMLSchema-instance" xsi:noNamespaceSchemaLocation="http://sumo.dlr.de/xsd/netconvertConfiguration.xsd">

    <input>
        <node-files value="sumo_config\intersection.nod.xml"/>
        <edge-files value="sumo_config\intersection.edg.xml"/>
        <connection-files value="sumo_config\intersection.con.xml"/>
        <tllogic-files value="sumo_config\intersection.tll.xml"/>
    </input>

    <output>
        <output-file value="sumo_config\intersection.net.xml"/>
    </output>

    <building_defaults>
        <default.junctions.keep-clear value="false"/>
    </building_defaults>

    <report>
        <no-warnings value="true"/>
    </report>

</netconvertConfiguration>
-->

<net version="1.20" junctionCornerDetail="5" limitTurnSpeed="5.50" xmlns:xsi="http://www.w3.org/2001/XMLSchema-instance" xsi:noNamespaceSchemaLocation="http://sumo.dlr.de/xsd/net_file.xsd">

    <location netOffset="200.00,200.00" convBoundary="0.00,0.00,400.00,400.00" origBoundary="-200.00,-200.00,200.00,200.00" projParameter="!"/>

    <edge id=":J_E_0" function="internal">
        <lane id=":J_E_0_0" index="0" speed="3.65" length="4.67" shape="400.00,198.40 401.20,199.20 401.60,200.00 401.20,200.80 400.00,201.60"/>
    </edge>
    <edge id=":J_N_0" function="internal">
        <lane id=":J_N_0_0" index="0" speed="3.65" length="4.67" shape="201.60,400.00 200.80,401.20 200.00,401.60 199.20,401.20 198.40,400.00"/>
    </edge>
    <edge id=":J_S_0" function="internal">
        <lane id=":J_S_0_0" index="0" speed="3.65" length="4.67" shape="198.40,0.00 199.20,-1.20 200.00,-1.60 200.80,-1.20 201.60,0.00"/>
    </edge>
    <edge id=":J_W_0" function="internal">
        <lane id=":J_W_0_0" index="0" speed="3.65" length="4.67" shape="0.00,201.60 -1.20,200.80 -1.60,200.00 -1.20,199.20 0.00,198.40"/>
    </edge>
    <edge id=":J_center_0" function="internal">
        <lane id=":J_center_0_0" index="0" speed="13.89" length="20.80" shape="195.20,210.40 195.20,189.60"/>
    </edge>
    <edge id=":J_center_1" function="internal">
        <lane id=":J_center_1_0" index="0" speed="9.84" length="21.99" shape="198.40,210.40 199.15,203.75 201.40,199.00 205.15,196.15 210.40,195.20"/>
    </edge>
    <edge id=":J_center_2" function="internal">
        <lane id=":J_center_2_0" index="0" speed="13.89" length="20.80" shape="210.40,204.80 189.60,204.80"/>
    </edge>
    <edge id=":J_center_3" function="internal">
        <lane id=":J_center_3_0" index="0" speed="9.84" length="21.99" shape="210.40,201.60 203.75,200.85 199.00,198.60 196.15,194.85 195.20,189.60"/>
    </edge>
    <edge id=":J_center_4" function="internal">
        <lane id=":J_center_4_0" index="0" speed="13.89" length="20.80" shape="204.80,189.60 204.80,210.40"/>
    </edge>
    <edge id=":J_center_5" function="internal">
        <lane id=":J_center_5_0" index="0" speed="9.84" length="21.99" shape="201.60,189.60 200.85,196.25 198.60,201.00 194.85,203.85 189.60,204.80"/>
    </edge>
    <edge id=":J_center_6" function="internal">
        <lane id=":J_center_6_0" index="0" speed="13.89" length="20.80" shape="189.60,195.20 210.40,195.20"/>
    </edge>
    <edge id=":J_center_7" function="internal">
        <lane id=":J_center_7_0" index="0" speed="9.84" length="21.99" shape="189.60,198.40 196.25,199.15 201.00,201.40 203.85,205.15 204.80,210.40"/>
    </edge>

    <edge id="E_E_in" from="J_E" to="J_center" priority="12">
        <lane id="E_E_in_0" index="0" speed="13.89" length="189.60" shape="400.00,204.80 210.40,204.80"/>
        <lane id="E_E_in_1" index="1" speed="13.89" length="189.60" shape="400.00,201.60 210.40,201.60"/>
    </edge>
    <edge id="E_E_out" from="J_center" to="J_E" priority="12">
        <lane id="E_E_out_0" index="0" speed="13.89" length="189.60" shape="210.40,195.20 400.00,195.20"/>
        <lane id="E_E_out_1" index="1" speed="13.89" length="189.60" shape="210.40,198.40 400.00,198.40"/>
    </edge>
    <edge id="E_N_in" from="J_N" to="J_center" priority="12">
        <lane id="E_N_in_0" index="0" speed="13.89" length="189.60" shape="195.20,400.00 195.20,210.40"/>
        <lane id="E_N_in_1" index="1" speed="13.89" length="189.60" shape="198.40,400.00 198.40,210.40"/>
    </edge>
    <edge id="E_N_out" from="J_center" to="J_N" priority="12">
        <lane id="E_N_out_0" index="0" speed="13.89" length="189.60" shape="204.80,210.40 204.80,400.00"/>
        <lane id="E_N_out_1" index="1" speed="13.89" length="189.60" shape="201.60,210.40 201.60,400.00"/>
    </edge>
    <edge id="E_S_in" from="J_S" to="J_center" priority="12">
        <lane id="E_S_in_0" index="0" speed="13.89" length="189.60" shape="204.80,0.00 204.80,189.60"/>
        <lane id="E_S_in_1" index="1" speed="13.89" length="189.60" shape="201.60,0.00 201.60,189.60"/>
    </edge>
    <edge id="E_S_out" from="J_center" to="J_S" priority="12">
        <lane id="E_S_out_0" index="0" speed="13.89" length="189.60" shape="195.20,189.60 195.20,0.00"/>
        <lane id="E_S_out_1" index="1" speed="13.89" length="189.60" shape="198.40,189.60 198.40,0.00"/>
    </edge>
    <edge id="E_W_in" from="J_W" to="J_center" priority="12">
        <lane id="E_W_in_0" index="0" speed="13.89" length="189.60" shape="0.00,195.20 189.60,195.20"/>
        <lane id="E_W_in_1" index="1" speed="13.89" length="189.60" shape="0.00,198.40 189.60,198.40"/>
    </edge>
    <edge id="E_W_out" from="J_center" to="J_W" priority="12">
        <lane id="E_W_out_0" index="0" speed="13.89" length="189.60" shape="189.60,204.80 0.00,204.80"/>
        <lane id="E_W_out_1" index="1" speed="13.89" length="189.60" shape="189.60,201.60 0.00,201.60"/>
    </edge>

    <tlLogic id="J_center" type="static" programID="adaptive_fuzzy" offset="0">
        <phase duration="30" state="GGGGrrrr" name="NS_GREEN"/>
        <phase duration="3"  state="yyyyrrrr" name="NS_YELLOW"/>
        <phase duration="30" state="rrrrGGGG" name="EW_GREEN"/>
        <phase duration="3"  state="rrrryyyy" name="EW_YELLOW"/>
    </tlLogic>

    <junction id="J_E" type="priority" x="400.00" y="200.00" incLanes="E_E_out_0 E_E_out_1" intLanes=":J_E_0_0" shape="400.00,200.00 400.00,193.60 400.00,200.00">
        <request index="0" response="0" foes="0" cont="0"/>
    </junction>
    <junction id="J_N" type="priority" x="200.00" y="400.00" incLanes="E_N_out_0 E_N_out_1" intLanes=":J_N_0_0" shape="200.00,400.00 206.40,400.00 200.00,400.00">
        <request index="0" response="0" foes="0" cont="0"/>
    </junction>
    <junction id="J_S" type="priority" x="200.00" y="0.00" incLanes="E_S_out_0 E_S_out_1" intLanes=":J_S_0_0" shape="200.00,0.00 193.60,0.00 200.00,0.00">
        <request index="0" response="0" foes="0" cont="0"/>
    </junction>
    <junction id="J_W" type="priority" x="0.00" y="200.00" incLanes="E_W_out_0 E_W_out_1" intLanes=":J_W_0_0" shape="0.00,200.00 0.00,206.40 0.00,200.00">
        <request index="0" response="0" foes="0" cont="0"/>
    </junction>
    <junction id="J_center" type="traffic_light" x="200.00" y="200.00" incLanes="E_N_in_0 E_N_in_1 E_E_in_0 E_E_in_1 E_S_in_0 E_S_in_1 E_W_in_0 E_W_in_1" intLanes=":J_center_0_0 :J_center_1_0 :J_center_2_0 :J_center_3_0 :J_center_4_0 :J_center_5_0 :J_center_6_0 :J_center_7_0" shape="193.60,210.40 206.40,210.40 206.84,208.18 207.40,207.40 208.18,206.84 209.18,206.51 210.40,206.40 210.40,193.60 208.18,193.16 207.40,192.60 206.84,191.82 206.51,190.82 206.40,189.60 193.60,189.60 193.16,191.82 192.60,192.60 191.82,193.16 190.82,193.49 189.60,193.60 189.60,206.40 191.82,206.84 192.60,207.40 193.16,208.18 193.49,209.18">
        <request index="0" response="00000000" foes="11101100" cont="0"/>
        <request index="1" response="00110000" foes="11111100" cont="0"/>
        <request index="2" response="00110011" foes="10110011" cont="0"/>
        <request index="3" response="11110011" foes="11110011" cont="0"/>
        <request index="4" response="00000000" foes="11001110" cont="0"/>
        <request index="5" response="00000001" foes="11001111" cont="0"/>
        <request index="6" response="00110011" foes="00111011" cont="0"/>
        <request index="7" response="00110111" foes="00111111" cont="0"/>
    </junction>

    <connection from="E_E_in" to="E_W_out" fromLane="0" toLane="0" keepClear="0" via=":J_center_2_0" tl="J_center" linkIndex="2" dir="s" state="o"/>
    <connection from="E_E_in" to="E_S_out" fromLane="1" toLane="0" keepClear="0" via=":J_center_3_0" tl="J_center" linkIndex="3" dir="l" state="o"/>
    <connection from="E_E_out" to="E_E_in" fromLane="1" toLane="1" via=":J_E_0_0" dir="t" state="M"/>
    <connection from="E_N_in" to="E_S_out" fromLane="0" toLane="0" keepClear="0" via=":J_center_0_0" tl="J_center" linkIndex="0" dir="s" state="O"/>
    <connection from="E_N_in" to="E_E_out" fromLane="1" toLane="0" keepClear="0" via=":J_center_1_0" tl="J_center" linkIndex="1" dir="l" state="o"/>
    <connection from="E_N_out" to="E_N_in" fromLane="1" toLane="1" via=":J_N_0_0" dir="t" state="M"/>
    <connection from="E_S_in" to="E_N_out" fromLane="0" toLane="0" keepClear="0" via=":J_center_4_0" tl="J_center" linkIndex="4" dir="s" state="O"/>
    <connection from="E_S_in" to="E_W_out" fromLane="1" toLane="0" keepClear="0" via=":J_center_5_0" tl="J_center" linkIndex="5" dir="l" state="o"/>
    <connection from="E_S_out" to="E_S_in" fromLane="1" toLane="1" via=":J_S_0_0" dir="t" state="M"/>
    <connection from="E_W_in" to="E_E_out" fromLane="0" toLane="0" keepClear="0" via=":J_center_6_0" tl="J_center" linkIndex="6" dir="s" state="o"/>
    <connection from="E_W_in" to="E_N_out" fromLane="1" toLane="0" keepClear="0" via=":J_center_7_0" tl="J_center" linkIndex="7" dir="l" state="o"/>
    <connection from="E_W_out" to="E_W_in" fromLane="1" toLane="1" via=":J_W_0_0" dir="t" state="M"/>

    <connection from=":J_E_0" to="E_E_in" fromLane="0" toLane="1" dir="t" state="M"/>
    <connection from=":J_N_0" to="E_N_in" fromLane="0" toLane="1" dir="t" state="M"/>
    <connection from=":J_S_0" to="E_S_in" fromLane="0" toLane="1" dir="t" state="M"/>
    <connection from=":J_W_0" to="E_W_in" fromLane="0" toLane="1" dir="t" state="M"/>
    <connection from=":J_center_0" to="E_S_out" fromLane="0" toLane="0" dir="s" state="M"/>
    <connection from=":J_center_1" to="E_E_out" fromLane="0" toLane="0" dir="l" state="M"/>
    <connection from=":J_center_2" to="E_W_out" fromLane="0" toLane="0" dir="s" state="M"/>
    <connection from=":J_center_3" to="E_S_out" fromLane="0" toLane="0" dir="l" state="M"/>
    <connection from=":J_center_4" to="E_N_out" fromLane="0" toLane="0" dir="s" state="M"/>
    <connection from=":J_center_5" to="E_W_out" fromLane="0" toLane="0" dir="l" state="M"/>
    <connection from=":J_center_6" to="E_E_out" fromLane="0" toLane="0" dir="s" state="M"/>
    <connection from=":J_center_7" to="E_N_out" fromLane="0" toLane="0" dir="l" state="M"/>

</net>
