<?xml version="1.0" encoding="UTF-8"?>
<connections>
    <!-- Dari UTARA -->
    <!-- Lajur 0: lurus ke Selatan -->
    <connection from="E_N_in" to="E_S_out" fromLane="0" toLane="0"/>
    <!-- Lajur 1: belok kiri ke Timur -->
    <connection from="E_N_in" to="E_E_out" fromLane="1" toLane="0"/>

    <!-- Dari SELATAN -->
    <!-- Lajur 0: lurus ke Utara -->
    <connection from="E_S_in" to="E_N_out" fromLane="0" toLane="0"/>
    <!-- Lajur 1: belok kiri ke Barat -->
    <connection from="E_S_in" to="E_W_out" fromLane="1" toLane="0"/>

    <!-- Dari TIMUR -->
    <!-- Lajur 0: lurus ke Barat -->
    <connection from="E_E_in" to="E_W_out" fromLane="0" toLane="0"/>
    <!-- Lajur 1: belok kiri ke Selatan -->
    <connection from="E_E_in" to="E_S_out" fromLane="1" toLane="0"/>

    <!-- Dari BARAT -->
    <!-- Lajur 0: lurus ke Timur -->
    <connection from="E_W_in" to="E_E_out" fromLane="0" toLane="0"/>
    <!-- Lajur 1: belok kiri ke Utara -->
    <connection from="E_W_in" to="E_N_out" fromLane="1" toLane="0"/>
</connections>
