<?xml version="1.0" encoding="UTF-8"?>
<!--
    Distribusi kendaraan (kondisi lalu lintas Bali):
      Mobil  40% | Motor 45% | Bus 8% | Truk 7%

    3 Periode:
      P1 (0-600s)    : Volume rendah  ~400 kend/jam
      P2 (600-2400s) : JAM SIBUK      ~900 kend/jam (NS lebih padat)
      P3 (2400-3600s): Volume sedang  ~550 kend/jam
-->
<routes>
    <!-- Tipe kendaraan -->
    <vType id="Mobil" length="4.5" accel="2.6" decel="4.5" sigma="0.5"
           maxSpeed="13.89" minGap="2.5" color="0,0.9,1"    guiShape="passenger"/>
    <vType id="Motor" length="2.0" accel="3.5" decel="5.0" sigma="0.6"
           maxSpeed="16.67" minGap="1.0" color="0.49,0.23,0.93" guiShape="motorcycle"/>
    <vType id="Bus"   length="12.0" accel="1.2" decel="4.0" sigma="0.3"
           maxSpeed="11.11" minGap="3.0" color="0.96,0.62,0.04" guiShape="bus"/>
    <vType id="Truk"  length="10.0" accel="1.0" decel="3.5" sigma="0.3"
           maxSpeed="11.11" minGap="3.5" color="0.93,0.28,0.60" guiShape="truck"/>

    <!-- Rute lurus -->
    <route id="r_NS" edges="E_N_in E_S_out"/>
    <route id="r_SN" edges="E_S_in E_N_out"/>
    <route id="r_EW" edges="E_E_in E_W_out"/>
    <route id="r_WE" edges="E_W_in E_E_out"/>
    <!-- Rute belok -->
    <route id="r_NE" edges="E_N_in E_E_out"/>
    <route id="r_SW" edges="E_S_in E_W_out"/>
    <route id="r_ES" edges="E_E_in E_S_out"/>
    <route id="r_WN" edges="E_W_in E_N_out"/>

    <!-- ═══ P1: Volume Rendah (0-600s) ═══ -->
    <flow id="p1_N_M"  type="Mobil" route="r_NS" begin="0"   end="600"  vehsPerHour="160" departLane="best" departSpeed="max"/>
    <flow id="p1_N_Mo" type="Motor" route="r_NS" begin="0"   end="600"  vehsPerHour="180" departLane="best" departSpeed="max"/>
    <flow id="p1_N_B"  type="Bus"   route="r_NS" begin="0"   end="600"  vehsPerHour="32"  departLane="best" departSpeed="max"/>
    <flow id="p1_N_T"  type="Truk"  route="r_NS" begin="0"   end="600"  vehsPerHour="28"  departLane="best" departSpeed="max"/>

    <flow id="p1_S_M"  type="Mobil" route="r_SN" begin="0"   end="600"  vehsPerHour="152" departLane="best" departSpeed="max"/>
    <flow id="p1_S_Mo" type="Motor" route="r_SN" begin="0"   end="600"  vehsPerHour="171" departLane="best" departSpeed="max"/>
    <flow id="p1_S_B"  type="Bus"   route="r_SN" begin="0"   end="600"  vehsPerHour="30"  departLane="best" departSpeed="max"/>
    <flow id="p1_S_T"  type="Truk"  route="r_SN" begin="0"   end="600"  vehsPerHour="27"  departLane="best" departSpeed="max"/>

    <flow id="p1_E_M"  type="Mobil" route="r_EW" begin="0"   end="600"  vehsPerHour="120" departLane="best" departSpeed="max"/>
    <flow id="p1_E_Mo" type="Motor" route="r_EW" begin="0"   end="600"  vehsPerHour="135" departLane="best" departSpeed="max"/>
    <flow id="p1_E_B"  type="Bus"   route="r_EW" begin="0"   end="600"  vehsPerHour="24"  departLane="best" departSpeed="max"/>
    <flow id="p1_E_T"  type="Truk"  route="r_EW" begin="0"   end="600"  vehsPerHour="21"  departLane="best" departSpeed="max"/>

    <flow id="p1_W_M"  type="Mobil" route="r_WE" begin="0"   end="600"  vehsPerHour="128" departLane="best" departSpeed="max"/>
    <flow id="p1_W_Mo" type="Motor" route="r_WE" begin="0"   end="600"  vehsPerHour="144" departLane="best" departSpeed="max"/>
    <flow id="p1_W_B"  type="Bus"   route="r_WE" begin="0"   end="600"  vehsPerHour="26"  departLane="best" departSpeed="max"/>
    <flow id="p1_W_T"  type="Truk"  route="r_WE" begin="0"   end="600"  vehsPerHour="22"  departLane="best" departSpeed="max"/>

    <!-- ═══ P2: JAM SIBUK (600-2400s) — NS jauh lebih padat ═══ -->
    <flow id="p2_N_M"  type="Mobil" route="r_NS" begin="600" end="2400" vehsPerHour="360" departLane="best" departSpeed="max"/>
    <flow id="p2_N_Mo" type="Motor" route="r_NS" begin="600" end="2400" vehsPerHour="405" departLane="best" departSpeed="max"/>
    <flow id="p2_N_B"  type="Bus"   route="r_NS" begin="600" end="2400" vehsPerHour="72"  departLane="best" departSpeed="max"/>
    <flow id="p2_N_T"  type="Truk"  route="r_NS" begin="600" end="2400" vehsPerHour="63"  departLane="best" departSpeed="max"/>

    <flow id="p2_S_M"  type="Mobil" route="r_SN" begin="600" end="2400" vehsPerHour="340" departLane="best" departSpeed="max"/>
    <flow id="p2_S_Mo" type="Motor" route="r_SN" begin="600" end="2400" vehsPerHour="382" departLane="best" departSpeed="max"/>
    <flow id="p2_S_B"  type="Bus"   route="r_SN" begin="600" end="2400" vehsPerHour="68"  departLane="best" departSpeed="max"/>
    <flow id="p2_S_T"  type="Truk"  route="r_SN" begin="600" end="2400" vehsPerHour="60"  departLane="best" departSpeed="max"/>

    <flow id="p2_E_M"  type="Mobil" route="r_EW" begin="600" end="2400" vehsPerHour="160" departLane="best" departSpeed="max"/>
    <flow id="p2_E_Mo" type="Motor" route="r_EW" begin="600" end="2400" vehsPerHour="180" departLane="best" departSpeed="max"/>
    <flow id="p2_E_B"  type="Bus"   route="r_EW" begin="600" end="2400" vehsPerHour="32"  departLane="best" departSpeed="max"/>
    <flow id="p2_E_T"  type="Truk"  route="r_EW" begin="600" end="2400" vehsPerHour="28"  departLane="best" departSpeed="max"/>

    <flow id="p2_W_M"  type="Mobil" route="r_WE" begin="600" end="2400" vehsPerHour="172" departLane="best" departSpeed="max"/>
    <flow id="p2_W_Mo" type="Motor" route="r_WE" begin="600" end="2400" vehsPerHour="193" departLane="best" departSpeed="max"/>
    <flow id="p2_W_B"  type="Bus"   route="r_WE" begin="600" end="2400" vehsPerHour="34"  departLane="best" departSpeed="max"/>
    <flow id="p2_W_T"  type="Truk"  route="r_WE" begin="600" end="2400" vehsPerHour="31"  departLane="best" departSpeed="max"/>

    <!-- ═══ P3: Volume Sedang (2400-3600s) ═══ -->
    <flow id="p3_N_M"  type="Mobil" route="r_NS" begin="2400" end="3600" vehsPerHour="220" departLane="best" departSpeed="max"/>
    <flow id="p3_N_Mo" type="Motor" route="r_NS" begin="2400" end="3600" vehsPerHour="247" departLane="best" departSpeed="max"/>
    <flow id="p3_N_B"  type="Bus"   route="r_NS" begin="2400" end="3600" vehsPerHour="44"  departLane="best" departSpeed="max"/>
    <flow id="p3_N_T"  type="Truk"  route="r_NS" begin="2400" end="3600" vehsPerHour="38"  departLane="best" departSpeed="max"/>

    <flow id="p3_S_M"  type="Mobil" route="r_SN" begin="2400" end="3600" vehsPerHour="208" departLane="best" departSpeed="max"/>
    <flow id="p3_S_Mo" type="Motor" route="r_SN" begin="2400" end="3600" vehsPerHour="234" departLane="best" departSpeed="max"/>
    <flow id="p3_S_B"  type="Bus"   route="r_SN" begin="2400" end="3600" vehsPerHour="42"  departLane="best" departSpeed="max"/>
    <flow id="p3_S_T"  type="Truk"  route="r_SN" begin="2400" end="3600" vehsPerHour="36"  departLane="best" departSpeed="max"/>

    <flow id="p3_E_M"  type="Mobil" route="r_EW" begin="2400" end="3600" vehsPerHour="196" departLane="best" departSpeed="max"/>
    <flow id="p3_E_Mo" type="Motor" route="r_EW" begin="2400" end="3600" vehsPerHour="220" departLane="best" departSpeed="max"/>
    <flow id="p3_E_B"  type="Bus"   route="r_EW" begin="2400" end="3600" vehsPerHour="39"  departLane="best" departSpeed="max"/>
    <flow id="p3_E_T"  type="Truk"  route="r_EW" begin="2400" end="3600" vehsPerHour="35"  departLane="best" departSpeed="max"/>

    <flow id="p3_W_M"  type="Mobil" route="r_WE" begin="2400" end="3600" vehsPerHour="204" departLane="best" departSpeed="max"/>
    <flow id="p3_W_Mo" type="Motor" route="r_WE" begin="2400" end="3600" vehsPerHour="229" departLane="best" departSpeed="max"/>
    <flow id="p3_W_B"  type="Bus"   route="r_WE" begin="2400" end="3600" vehsPerHour="41"  departLane="best" departSpeed="max"/>
    <flow id="p3_W_T"  type="Truk"  route="r_WE" begin="2400" end="3600" vehsPerHour="36"  departLane="best" departSpeed="max"/>

    <!-- Kendaraan belok (variasi realistis) -->
    <flow id="bNE" type="Mobil" route="r_NE" begin="0" end="3600" vehsPerHour="48" departLane="best" departSpeed="max"/>
    <flow id="bSW" type="Mobil" route="r_SW" begin="0" end="3600" vehsPerHour="44" departLane="best" departSpeed="max"/>
    <flow id="bES" type="Motor" route="r_ES" begin="0" end="3600" vehsPerHour="54" departLane="best" departSpeed="max"/>
    <flow id="bWN" type="Motor" route="r_WN" begin="0" end="3600" vehsPerHour="50" departLane="best" departSpeed="max"/>
</routes>
